mux_energia/Lines_SSDMT_1_TAP2_1.txt
New line.2449 phases = 3 bus1 = 237 bus2 = 8685 
~ length = 40 units = m 
~ linecode = 70

New line.2450 phases = 3 bus1 = 8685 bus2 = 239 
~ length = 40 units = m 
~ linecode = 70

New line.2430 phases = 3 bus1 = 8630 bus2 = 8629 
~ length = 40 units = m 
~ linecode = 114

New line.2431 phases = 3 bus1 = 8631 bus2 = 8630 
~ length = 40 units = m 
~ linecode = 114

New line.2432 phases = 3 bus1 = 8632 bus2 = 8641 
~ length = 40 units = m 
~ linecode = 114

New line.2433 phases = 3 bus1 = 8633 bus2 = 2475 
~ length = 40 units = m 
~ linecode = 56

New line.2434 phases = 3 bus1 = 8641 bus2 = 8633 
~ length = 40 units = m 
~ linecode = 114

New line.2435 phases = 3 bus1 = 8642 bus2 = 8625 
~ length = 40 units = m 
~ linecode = 114

New line.2415 phases = 3 bus1 = 8588 bus2 = 43 
~ length = 40 units = m 
~ linecode = 68

New line.2416 phases = 3 bus1 = 19 bus2 = 8596 
~ length = 40 units = m 
~ linecode = 63

New line.2417 phases = 3 bus1 = 1617 bus2 = 8596 
~ length = 40 units = m 
~ linecode = 56

New line.2418 phases = 3 bus1 = 2489 bus2 = 8596 
~ length = 40 units = m 
~ linecode = 56

New line.2419 phases = 3 bus1 = 8596 bus2 = 1616 
~ length = 40 units = m 
~ linecode = 63

New line.2422 phases = 3 bus1 = 8622 bus2 = 8641 
~ length = 40 units = m 
~ linecode = 114

New line.2423 phases = 3 bus1 = 8623 bus2 = 8641 
~ length = 40 units = m 
~ linecode = 114

New line.2424 phases = 3 bus1 = 8624 bus2 = 8623 
~ length = 40 units = m 
~ linecode = 114

New line.2425 phases = 3 bus1 = 8625 bus2 = 8624 
~ length = 40 units = m 
~ linecode = 114

New line.2426 phases = 3 bus1 = 8626 bus2 = 8642 
~ length = 40 units = m 
~ linecode = 114

New line.2427 phases = 3 bus1 = 8627 bus2 = 8642 
~ length = 40 units = m 
~ linecode = 114

New line.2428 phases = 3 bus1 = 8628 bus2 = 8642 
~ length = 40 units = m 
~ linecode = 114

New line.2429 phases = 3 bus1 = 8629 bus2 = 8628 
~ length = 40 units = m 
~ linecode = 114

New line.2398 phases = 3 bus1 = 726 bus2 = 725 
~ length = 40 units = m 
~ linecode = 63

New line.2399 phases = 3 bus1 = 8144 bus2 = 8545 
~ length = 40 units = m 
~ linecode = 118

New line.2401 phases = 3 bus1 = 8544 bus2 = 8545 
~ length = 40 units = m 
~ linecode = 118

New line.2402 phases = 3 bus1 = 8545 bus2 = 8160 
~ length = 40 units = m 
~ linecode = 118

New line.2377 phases = 3 bus1 = 8487 bus2 = 1844 
~ length = 40 units = m 
~ linecode = 63

New line.2378 phases = 3 bus1 = 8501 bus2 = 3352 
~ length = 40 units = m 
~ linecode = 63

New line.2381 phases = 3 bus1 = 8513 bus2 = 1602 
~ length = 40 units = m 
~ linecode = 56

New line.2382 phases = 3 bus1 = 8514 bus2 = 8513 
~ length = 40 units = m 
~ linecode = 56

New line.2385 phases = 3 bus1 = 7359 bus2 = 8519 
~ length = 40 units = m 
~ linecode = 63

New line.2386 phases = 3 bus1 = 8519 bus2 = 6615 
~ length = 40 units = m 
~ linecode = 63

New line.2393 phases = 3 bus1 = 897 bus2 = 3411 
~ length = 40 units = m 
~ linecode = 67

New line.2394 phases = 3 bus1 = 898 bus2 = 897 
~ length = 40 units = m 
~ linecode = 67

New line.2395 phases = 3 bus1 = 2004 bus2 = 3411 
~ length = 40 units = m 
~ linecode = 67

New line.2364 phases = 3 bus1 = 8439 bus2 = 3171 
~ length = 40 units = m 
~ linecode = 63

New line.2367 phases = 3 bus1 = 1447 bus2 = 8445 
~ length = 40 units = m 
~ linecode = 3

New line.2368 phases = 3 bus1 = 8445 bus2 = 471 
~ length = 40 units = m 
~ linecode = 3

New line.2370 phases = 3 bus1 = 2931 bus2 = 2780 
~ length = 40 units = m 
~ linecode = 70

New line.2369 phases = 3 bus1 = 8447 bus2 = 1807 
~ length = 40 units = m 
~ linecode = 124

New line.2379 phases = 3 bus1 = 1602 bus2 = 7763 
~ length = 40 units = m 
~ linecode = 56

New line.2372 phases = 3 bus1 = 8488 bus2 = 8487 
~ length = 40 units = m 
~ linecode = 114

New line.2373 phases = 3 bus1 = 8489 bus2 = 8488 
~ length = 40 units = m 
~ linecode = 114

New line.2374 phases = 3 bus1 = 8490 bus2 = 8489 
~ length = 40 units = m 
~ linecode = 114

New line.2375 phases = 3 bus1 = 8491 bus2 = 8490 
~ length = 40 units = m 
~ linecode = 114

New line.2376 phases = 3 bus1 = 8492 bus2 = 8491 
~ length = 40 units = m 
~ linecode = 114

New line.2380 phases = 3 bus1 = 1852 bus2 = 1606 
~ length = 40 units = m 
~ linecode = 63

New line.2351 phases = 3 bus1 = 8430 bus2 = 1218 
~ length = 40 units = m 
~ linecode = 70

New line.2352 phases = 3 bus1 = 8223 bus2 = 8430 
~ length = 40 units = m 
~ linecode = 70

New line.2353 phases = 3 bus1 = 8429 bus2 = 8430 
~ length = 40 units = m 
~ linecode = 122

New line.2354 phases = 3 bus1 = 8428 bus2 = 8429 
~ length = 40 units = m 
~ linecode = 122

New line.2355 phases = 3 bus1 = 8427 bus2 = 8428 
~ length = 40 units = m 
~ linecode = 122

New line.2356 phases = 3 bus1 = 8426 bus2 = 8427 
~ length = 40 units = m 
~ linecode = 122

New line.2329 phases = 3 bus1 = 1819 bus2 = 8397 
~ length = 40 units = m 
~ linecode = 56

New line.2330 phases = 3 bus1 = 1820 bus2 = 8397 
~ length = 40 units = m 
~ linecode = 56

New line.2331 phases = 3 bus1 = 8397 bus2 = 1821 
~ length = 40 units = m 
~ linecode = 70

New line.2332 phases = 3 bus1 = 8398 bus2 = 1819 
~ length = 40 units = m 
~ linecode = 56

New line.2318 phases = 3 bus1 = 8366 bus2 = 2190 
~ length = 40 units = m 
~ linecode = 56

New line.2322 phases = 3 bus1 = 1293 bus2 = 2105 
~ length = 40 units = m 
~ linecode = 56

New line.2323 phases = 3 bus1 = 2103 bus2 = 153 
~ length = 40 units = m 
~ linecode = 56

New line.2324 phases = 3 bus1 = 2105 bus2 = 2103 
~ length = 40 units = m 
~ linecode = 56

New line.2325 phases = 3 bus1 = 8392 bus2 = 2081 
~ length = 40 units = m 
~ linecode = 118

New line.2326 phases = 3 bus1 = 84 bus2 = 1432 
~ length = 40 units = m 
~ linecode = 70

New line.2327 phases = 3 bus1 = 1465 bus2 = 1818 
~ length = 40 units = m 
~ linecode = 70

New line.2328 phases = 3 bus1 = 1818 bus2 = 8397 
~ length = 40 units = m 
~ linecode = 70

New line.2295 phases = 3 bus1 = 2940 bus2 = 2941 
~ length = 40 units = m 
~ linecode = 114

New line.2296 phases = 3 bus1 = 2941 bus2 = 2942 
~ length = 40 units = m 
~ linecode = 114

New line.2297 phases = 3 bus1 = 2942 bus2 = 2943 
~ length = 40 units = m 
~ linecode = 114

New line.2298 phases = 3 bus1 = 2943 bus2 = 2944 
~ length = 40 units = m 
~ linecode = 114

New line.2299 phases = 3 bus1 = 2944 bus2 = 3008 
~ length = 40 units = m 
~ linecode = 114

New line.2300 phases = 3 bus1 = 3008 bus2 = 3377 
~ length = 40 units = m 
~ linecode = 56

New line.2301 phases = 3 bus1 = 3011 bus2 = 3377 
~ length = 40 units = m 
~ linecode = 56

New line.2302 phases = 3 bus1 = 3377 bus2 = 2116 
~ length = 40 units = m 
~ linecode = 67

New line.2303 phases = 3 bus1 = 7753 bus2 = 545 
~ length = 40 units = m 
~ linecode = 63

New line.2312 phases = 3 bus1 = 1680 bus2 = 8262 
~ length = 40 units = m 
~ linecode = 56

New line.2292 phases = 3 bus1 = 6940 bus2 = 8329 
~ length = 40 units = m 
~ linecode = 56

New line.2293 phases = 3 bus1 = 8329 bus2 = 3376 
~ length = 40 units = m 
~ linecode = 56

New line.2294 phases = 3 bus1 = 2115 bus2 = 3377 
~ length = 40 units = m 
~ linecode = 67

New line.2260 phases = 3 bus1 = 8262 bus2 = 1682 
~ length = 40 units = m 
~ linecode = 56

New line.2255 phases = 3 bus1 = 2193 bus2 = 2191 
~ length = 40 units = m 
~ linecode = 70

New line.2233 phases = 3 bus1 = 1611 bus2 = 792 
~ length = 40 units = m 
~ linecode = 63

New line.2234 phases = 3 bus1 = 8197 bus2 = 2793 
~ length = 40 units = m 
~ linecode = 56

New line.2235 phases = 3 bus1 = 8198 bus2 = 8197 
~ length = 40 units = m 
~ linecode = 56

New line.2191 phases = 3 bus1 = 8158 bus2 = 8172 
~ length = 40 units = m 
~ linecode = 118

New line.2197 phases = 3 bus1 = 8222 bus2 = 8223 
~ length = 40 units = m 
~ linecode = 70

New line.2198 phases = 3 bus1 = 8221 bus2 = 8222 
~ length = 40 units = m 
~ linecode = 70

New line.2200 phases = 3 bus1 = 8219 bus2 = 8220 
~ length = 40 units = m 
~ linecode = 113

New line.2201 phases = 3 bus1 = 8218 bus2 = 8219 
~ length = 40 units = m 
~ linecode = 113

New line.2199 phases = 3 bus1 = 8220 bus2 = 8221 
~ length = 40 units = m 
~ linecode = 113

New line.2202 phases = 3 bus1 = 8217 bus2 = 8218 
~ length = 40 units = m 
~ linecode = 113

New line.2203 phases = 3 bus1 = 8216 bus2 = 8217 
~ length = 40 units = m 
~ linecode = 113

New line.2204 phases = 3 bus1 = 8215 bus2 = 8216 
~ length = 40 units = m 
~ linecode = 113

New line.2205 phases = 3 bus1 = 8214 bus2 = 8215 
~ length = 40 units = m 
~ linecode = 113

New line.2206 phases = 3 bus1 = 8213 bus2 = 8214 
~ length = 40 units = m 
~ linecode = 113

New line.2207 phases = 3 bus1 = 471 bus2 = 8226 
~ length = 40 units = m 
~ linecode = 3

New line.2174 phases = 3 bus1 = 8170 bus2 = 6889 
~ length = 40 units = m 
~ linecode = 63

New line.2175 phases = 3 bus1 = 8146 bus2 = 8170 
~ length = 40 units = m 
~ linecode = 118

New line.2176 phases = 3 bus1 = 8165 bus2 = 8146 
~ length = 40 units = m 
~ linecode = 118

New line.2177 phases = 3 bus1 = 8164 bus2 = 8165 
~ length = 40 units = m 
~ linecode = 118

New line.2178 phases = 3 bus1 = 8163 bus2 = 8164 
~ length = 40 units = m 
~ linecode = 118

New line.2179 phases = 3 bus1 = 8162 bus2 = 8163 
~ length = 40 units = m 
~ linecode = 118

New line.2180 phases = 3 bus1 = 8161 bus2 = 8162 
~ length = 40 units = m 
~ linecode = 118

New line.2181 phases = 3 bus1 = 8160 bus2 = 8161 
~ length = 40 units = m 
~ linecode = 118

New line.2185 phases = 3 bus1 = 8143 bus2 = 8545 
~ length = 40 units = m 
~ linecode = 118

New line.2186 phases = 3 bus1 = 8155 bus2 = 8143 
~ length = 40 units = m 
~ linecode = 118

New line.2187 phases = 3 bus1 = 8154 bus2 = 8155 
~ length = 40 units = m 
~ linecode = 118

New line.2188 phases = 3 bus1 = 8172 bus2 = 8154 
~ length = 40 units = m 
~ linecode = 118

New line.2189 phases = 3 bus1 = 8153 bus2 = 8172 
~ length = 40 units = m 
~ linecode = 118

New line.2190 phases = 3 bus1 = 8157 bus2 = 8172 
~ length = 40 units = m 
~ linecode = 118

New line.2159 phases = 3 bus1 = 8108 bus2 = 897 
~ length = 40 units = m 
~ linecode = 56

New line.2141 phases = 3 bus1 = 7259 bus2 = 2469 
~ length = 40 units = m 
~ linecode = 114

New line.2142 phases = 3 bus1 = 7260 bus2 = 7259 
~ length = 40 units = m 
~ linecode = 114

New line.2143 phases = 3 bus1 = 8045 bus2 = 7260 
~ length = 40 units = m 
~ linecode = 114

New line.2144 phases = 3 bus1 = 8030 bus2 = 8045 
~ length = 40 units = m 
~ linecode = 114

New line.2145 phases = 3 bus1 = 2361 bus2 = 2360 
~ length = 40 units = m 
~ linecode = 70

New line.2146 phases = 3 bus1 = 2360 bus2 = 152 
~ length = 40 units = m 
~ linecode = 70

New line.2088 phases = 3 bus1 = 7772 bus2 = 7766 
~ length = 40 units = m 
~ linecode = 67

New line.2085 phases = 3 bus1 = 261 bus2 = 7810 
~ length = 40 units = m 
~ linecode = 67

New line.2086 phases = 3 bus1 = 7773 bus2 = 7810 
~ length = 40 units = m 
~ linecode = 67

New line.2087 phases = 3 bus1 = 7810 bus2 = 7772 
~ length = 40 units = m 
~ linecode = 67

New line.2089 phases = 3 bus1 = 7766 bus2 = 54 
~ length = 40 units = m 
~ linecode = 67

New line.2090 phases = 3 bus1 = 54 bus2 = 7767 
~ length = 40 units = m 
~ linecode = 67

New line.2091 phases = 3 bus1 = 7767 bus2 = 7768 
~ length = 40 units = m 
~ linecode = 67

New line.2092 phases = 3 bus1 = 7768 bus2 = 1634 
~ length = 40 units = m 
~ linecode = 67

New line.2065 phases = 3 bus1 = 7762 bus2 = 550 
~ length = 40 units = m 
~ linecode = 63

New line.2064 phases = 3 bus1 = 7380 bus2 = 7719 
~ length = 40 units = m 
~ linecode = 56

New line.2066 phases = 3 bus1 = 7763 bus2 = 7762 
~ length = 40 units = m 
~ linecode = 63

New line.2068 phases = 3 bus1 = 2394 bus2 = 7771 
~ length = 40 units = m 
~ linecode = 56

New line.2069 phases = 3 bus1 = 1990 bus2 = 7771 
~ length = 40 units = m 
~ linecode = 56

New line.2070 phases = 3 bus1 = 2390 bus2 = 7771 
~ length = 40 units = m 
~ linecode = 56

New line.2071 phases = 3 bus1 = 2391 bus2 = 2390 
~ length = 40 units = m 
~ linecode = 56

New line.2072 phases = 3 bus1 = 7148 bus2 = 2391 
~ length = 40 units = m 
~ linecode = 56

New line.2073 phases = 3 bus1 = 2972 bus2 = 7148 
~ length = 40 units = m 
~ linecode = 56

New line.2074 phases = 3 bus1 = 7764 bus2 = 2972 
~ length = 40 units = m 
~ linecode = 56

New line.2049 phases = 3 bus1 = 36 bus2 = 35 
~ length = 40 units = m 
~ linecode = 67

New line.2050 phases = 3 bus1 = 35 bus2 = 1178 
~ length = 40 units = m 
~ linecode = 67

New line.2051 phases = 3 bus1 = 1178 bus2 = 6468 
~ length = 40 units = m 
~ linecode = 67

New line.2052 phases = 3 bus1 = 6468 bus2 = 289 
~ length = 40 units = m 
~ linecode = 67

New line.2053 phases = 3 bus1 = 289 bus2 = 355 
~ length = 40 units = m 
~ linecode = 67

New line.2054 phases = 3 bus1 = 355 bus2 = 356 
~ length = 40 units = m 
~ linecode = 67

New line.2055 phases = 3 bus1 = 356 bus2 = 357 
~ length = 40 units = m 
~ linecode = 67

New line.2056 phases = 3 bus1 = 357 bus2 = 358 
~ length = 40 units = m 
~ linecode = 67

New line.2057 phases = 3 bus1 = 358 bus2 = 418 
~ length = 40 units = m 
~ linecode = 67

New line.2058 phases = 3 bus1 = 418 bus2 = 857 
~ length = 40 units = m 
~ linecode = 67

New line.2059 phases = 3 bus1 = 7698 bus2 = 2470 
~ length = 40 units = m 
~ linecode = 63

New line.2060 phases = 3 bus1 = 7437 bus2 = 7441 
~ length = 40 units = m 
~ linecode = 56

New line.2061 phases = 3 bus1 = 7436 bus2 = 7437 
~ length = 40 units = m 
~ linecode = 56

New line.2062 phases = 3 bus1 = 7719 bus2 = 7436 
~ length = 40 units = m 
~ linecode = 56

New line.2063 phases = 3 bus1 = 7438 bus2 = 7719 
~ length = 40 units = m 
~ linecode = 56

New line.2028 phases = 3 bus1 = 1172 bus2 = 1171 
~ length = 40 units = m 
~ linecode = 63

New line.2029 phases = 3 bus1 = 1173 bus2 = 1172 
~ length = 40 units = m 
~ linecode = 63

New line.2030 phases = 3 bus1 = 1176 bus2 = 1173 
~ length = 40 units = m 
~ linecode = 63

New line.2031 phases = 3 bus1 = 1177 bus2 = 1176 
~ length = 40 units = m 
~ linecode = 63

New line.2032 phases = 3 bus1 = 1177 bus2 = 1213 
~ length = 40 units = m 
~ linecode = 63

New line.2033 phases = 3 bus1 = 1213 bus2 = 3418 
~ length = 40 units = m 
~ linecode = 63

New line.2034 phases = 3 bus1 = 940 bus2 = 3418 
~ length = 40 units = m 
~ linecode = 63

New line.2035 phases = 3 bus1 = 942 bus2 = 940 
~ length = 40 units = m 
~ linecode = 63

New line.2010 phases = 3 bus1 = 7771 bus2 = 2395 
~ length = 40 units = m 
~ linecode = 56

New line.2011 phases = 3 bus1 = 2397 bus2 = 2394 
~ length = 40 units = m 
~ linecode = 56

New line.2012 phases = 3 bus1 = 902 bus2 = 903 
~ length = 40 units = m 
~ linecode = 63

New line.2013 phases = 3 bus1 = 903 bus2 = 3386 
~ length = 40 units = m 
~ linecode = 63

New line.2014 phases = 3 bus1 = 718 bus2 = 3386 
~ length = 40 units = m 
~ linecode = 63

New line.2017 phases = 3 bus1 = 715 bus2 = 716 
~ length = 40 units = m 
~ linecode = 63

New line.2015 phases = 3 bus1 = 717 bus2 = 718 
~ length = 40 units = m 
~ linecode = 63

New line.2016 phases = 3 bus1 = 716 bus2 = 717 
~ length = 40 units = m 
~ linecode = 63

New line.2018 phases = 3 bus1 = 1404 bus2 = 715 
~ length = 40 units = m 
~ linecode = 63

New line.2019 phases = 3 bus1 = 1405 bus2 = 1404 
~ length = 40 units = m 
~ linecode = 63

New line.2022 phases = 3 bus1 = 1407 bus2 = 1406 
~ length = 40 units = m 
~ linecode = 63

New line.2020 phases = 3 bus1 = 3383 bus2 = 1405 
~ length = 40 units = m 
~ linecode = 63

New line.2021 phases = 3 bus1 = 1406 bus2 = 3383 
~ length = 40 units = m 
~ linecode = 63

New line.2023 phases = 3 bus1 = 1408 bus2 = 1407 
~ length = 40 units = m 
~ linecode = 63

New line.2024 phases = 3 bus1 = 1749 bus2 = 1408 
~ length = 40 units = m 
~ linecode = 63

New line.2025 phases = 3 bus1 = 1750 bus2 = 1749 
~ length = 40 units = m 
~ linecode = 63

New line.2026 phases = 3 bus1 = 1751 bus2 = 1750 
~ length = 40 units = m 
~ linecode = 63

New line.2027 phases = 3 bus1 = 1171 bus2 = 1751 
~ length = 40 units = m 
~ linecode = 63

New line.1992 phases = 3 bus1 = 7644 bus2 = 7681 
~ length = 40 units = m 
~ linecode = 56

New line.1993 phases = 3 bus1 = 7643 bus2 = 7644 
~ length = 40 units = m 
~ linecode = 56

New line.1994 phases = 3 bus1 = 7642 bus2 = 7643 
~ length = 40 units = m 
~ linecode = 56

New line.1995 phases = 3 bus1 = 7641 bus2 = 7642 
~ length = 40 units = m 
~ linecode = 56

New line.1996 phases = 3 bus1 = 7640 bus2 = 7641 
~ length = 40 units = m 
~ linecode = 56

New line.1997 phases = 3 bus1 = 7639 bus2 = 7640 
~ length = 40 units = m 
~ linecode = 56

New line.1998 phases = 3 bus1 = 7638 bus2 = 7639 
~ length = 40 units = m 
~ linecode = 56

New line.1999 phases = 3 bus1 = 7637 bus2 = 7638 
~ length = 40 units = m 
~ linecode = 56

New line.2000 phases = 3 bus1 = 7682 bus2 = 7637 
~ length = 40 units = m 
~ linecode = 56

New line.2001 phases = 3 bus1 = 7441 bus2 = 7682 
~ length = 40 units = m 
~ linecode = 56

New line.2002 phases = 3 bus1 = 7649 bus2 = 7682 
~ length = 40 units = m 
~ linecode = 56

New line.2003 phases = 3 bus1 = 7648 bus2 = 7682 
~ length = 40 units = m 
~ linecode = 56

New line.2004 phases = 3 bus1 = 7646 bus2 = 7648 
~ length = 40 units = m 
~ linecode = 56

New line.2005 phases = 3 bus1 = 7647 bus2 = 7646 
~ length = 40 units = m 
~ linecode = 56

New line.2006 phases = 3 bus1 = 7650 bus2 = 7647 
~ length = 40 units = m 
~ linecode = 56

New line.2007 phases = 3 bus1 = 725 bus2 = 7650 
~ length = 40 units = m 
~ linecode = 63

New line.2009 phases = 3 bus1 = 2395 bus2 = 1849 
~ length = 40 units = m 
~ linecode = 56

New line.1974 phases = 3 bus1 = 3031 bus2 = 7628 
~ length = 40 units = m 
~ linecode = 63

New line.1975 phases = 3 bus1 = 7547 bus2 = 7628 
~ length = 40 units = m 
~ linecode = 67

New line.1978 phases = 3 bus1 = 7544 bus2 = 7545 
~ length = 40 units = m 
~ linecode = 67

New line.1976 phases = 3 bus1 = 7546 bus2 = 7628 
~ length = 40 units = m 
~ linecode = 67

New line.1977 phases = 3 bus1 = 7545 bus2 = 7546 
~ length = 40 units = m 
~ linecode = 67

New line.1979 phases = 3 bus1 = 7543 bus2 = 7544 
~ length = 40 units = m 
~ linecode = 67

New line.1980 phases = 3 bus1 = 7542 bus2 = 7543 
~ length = 40 units = m 
~ linecode = 67

New line.1981 phases = 3 bus1 = 1291 bus2 = 7542 
~ length = 40 units = m 
~ linecode = 67

New line.1987 phases = 3 bus1 = 7679 bus2 = 7678 
~ length = 40 units = m 
~ linecode = 63

New line.1988 phases = 3 bus1 = 7681 bus2 = 7679 
~ length = 40 units = m 
~ linecode = 63

New line.1990 phases = 3 bus1 = 7680 bus2 = 7681 
~ length = 40 units = m 
~ linecode = 63

New line.1991 phases = 3 bus1 = 7645 bus2 = 7681 
~ length = 40 units = m 
~ linecode = 56

New line.1952 phases = 3 bus1 = 901 bus2 = 3422 
~ length = 40 units = m 
~ linecode = 63

New line.1955 phases = 3 bus1 = 18 bus2 = 3422 
~ length = 40 units = m 
~ linecode = 56

New line.1953 phases = 3 bus1 = 1998 bus2 = 3422 
~ length = 40 units = m 
~ linecode = 56

New line.1954 phases = 3 bus1 = 1999 bus2 = 1998 
~ length = 40 units = m 
~ linecode = 56

New line.1956 phases = 3 bus1 = 7587 bus2 = 194 
~ length = 40 units = m 
~ linecode = 56

New line.1957 phases = 3 bus1 = 7588 bus2 = 7587 
~ length = 40 units = m 
~ linecode = 56

New line.1958 phases = 3 bus1 = 7589 bus2 = 7588 
~ length = 40 units = m 
~ linecode = 56

New line.1959 phases = 3 bus1 = 7590 bus2 = 7589 
~ length = 40 units = m 
~ linecode = 56

New line.1960 phases = 3 bus1 = 7591 bus2 = 7590 
~ length = 40 units = m 
~ linecode = 56

New line.1961 phases = 3 bus1 = 7594 bus2 = 7591 
~ length = 40 units = m 
~ linecode = 56

New line.1934 phases = 3 bus1 = 7568 bus2 = 7582 
~ length = 40 units = m 
~ linecode = 56

New line.1935 phases = 3 bus1 = 7569 bus2 = 7568 
~ length = 40 units = m 
~ linecode = 56

New line.1936 phases = 3 bus1 = 7570 bus2 = 7569 
~ length = 40 units = m 
~ linecode = 56

New line.1937 phases = 3 bus1 = 7571 bus2 = 7570 
~ length = 40 units = m 
~ linecode = 56

New line.441 phases = 3 bus1 = 1673 bus2 = 1415 
~ length = 40 units = m 
~ linecode = 67

New line.765 phases = 3 bus1 = 1297 bus2 = 1296 
~ length = 40 units = m 
~ linecode = 56

New line.1926 phases = 3 bus1 = 7556 bus2 = 42 
~ length = 40 units = m 
~ linecode = 56

New line.1927 phases = 3 bus1 = 7557 bus2 = 7556 
~ length = 40 units = m 
~ linecode = 56

New line.1928 phases = 3 bus1 = 7558 bus2 = 7557 
~ length = 40 units = m 
~ linecode = 56

New line.1929 phases = 3 bus1 = 7559 bus2 = 7558 
~ length = 40 units = m 
~ linecode = 56

New line.1930 phases = 3 bus1 = 7560 bus2 = 7559 
~ length = 40 units = m 
~ linecode = 56

New line.1931 phases = 3 bus1 = 7582 bus2 = 7560 
~ length = 40 units = m 
~ linecode = 56

New line.1932 phases = 3 bus1 = 7561 bus2 = 7582 
~ length = 40 units = m 
~ linecode = 56

New line.1933 phases = 3 bus1 = 7567 bus2 = 7582 
~ length = 40 units = m 
~ linecode = 56

New line.1510 phases = 3 bus1 = 2750 bus2 = 2749 
~ length = 40 units = m 
~ linecode = 56

New line.20 phases = 3 bus1 = 1669 bus2 = 1668 
~ length = 40 units = m 
~ linecode = 63

New line.34 phases = 3 bus1 = 3291 bus2 = 89 
~ length = 40 units = m 
~ linecode = 63

New line.1665 phases = 3 bus1 = 6941 bus2 = 6940 
~ length = 40 units = m 
~ linecode = 56

New line.1850 phases = 3 bus1 = 7366 bus2 = 7367 
~ length = 40 units = m 
~ linecode = 56

New line.846 phases = 3 bus1 = 2343 bus2 = 3243 
~ length = 40 units = m 
~ linecode = 67

New line.946 phases = 3 bus1 = 2463 bus2 = 2464 
~ length = 40 units = m 
~ linecode = 70

New line.1006 phases = 3 bus1 = 1521 bus2 = 1525 
~ length = 40 units = m 
~ linecode = 68

New line.1111 phases = 3 bus1 = 1862 bus2 = 1861 
~ length = 40 units = m 
~ linecode = 63

New line.1176 phases = 3 bus1 = 1865 bus2 = 1864 
~ length = 40 units = m 
~ linecode = 63

New line.1213 phases = 3 bus1 = 148 bus2 = 3460 
~ length = 40 units = m 
~ linecode = 63

New line.1242 phases = 3 bus1 = 797 bus2 = 3437 
~ length = 40 units = m 
~ linecode = 63

New line.1482 phases = 3 bus1 = 168 bus2 = 169 
~ length = 40 units = m 
~ linecode = 3

New line.320 phases = 3 bus1 = 1808 bus2 = 1809 
~ length = 40 units = m 
~ linecode = 63

New line.339 phases = 3 bus1 = 233 bus2 = 234 
~ length = 40 units = m 
~ linecode = 70

New line.372 phases = 3 bus1 = 706 bus2 = 705 
~ length = 40 units = m 
~ linecode = 63

New line.457 phases = 3 bus1 = 107 bus2 = 108 
~ length = 40 units = m 
~ linecode = 3

New line.1915 phases = 3 bus1 = 826 bus2 = 787 
~ length = 40 units = m 
~ linecode = 67

New line.1916 phases = 3 bus1 = 825 bus2 = 826 
~ length = 40 units = m 
~ linecode = 67

New line.519 phases = 3 bus1 = 175 bus2 = 176 
~ length = 40 units = m 
~ linecode = 3

New line.590 phases = 3 bus1 = 2366 bus2 = 2367 
~ length = 40 units = m 
~ linecode = 67

New line.732 phases = 3 bus1 = 2777 bus2 = 1962 
~ length = 40 units = m 
~ linecode = 70

New line.781 phases = 3 bus1 = 2745 bus2 = 3149 
~ length = 40 units = m 
~ linecode = 63

New line.109 phases = 3 bus1 = 1277 bus2 = 546 
~ length = 40 units = m 
~ linecode = 63

New line.224 phases = 3 bus1 = 144 bus2 = 145 
~ length = 40 units = m 
~ linecode = 70

New line.293 phases = 3 bus1 = 1988 bus2 = 781 
~ length = 40 units = m 
~ linecode = 63

New line.1917 phases = 3 bus1 = 7527 bus2 = 567 
~ length = 40 units = m 
~ linecode = 63

New line.1918 phases = 3 bus1 = 7528 bus2 = 7527 
~ length = 40 units = m 
~ linecode = 63

New line.397 phases = 3 bus1 = 2111 bus2 = 2110 
~ length = 40 units = m 
~ linecode = 68

New line.17 phases = 3 bus1 = 1378 bus2 = 2113 
~ length = 40 units = m 
~ linecode = 67

New line.66 phases = 3 bus1 = 1734 bus2 = 1730 
~ length = 40 units = m 
~ linecode = 63

New line.130 phases = 3 bus1 = 1142 bus2 = 912 
~ length = 40 units = m 
~ linecode = 68

New line.1914 phases = 3 bus1 = 7525 bus2 = 1314 
~ length = 40 units = m 
~ linecode = 56

New line.1919 phases = 3 bus1 = 7538 bus2 = 7528 
~ length = 40 units = m 
~ linecode = 56

New line.1477 phases = 3 bus1 = 2488 bus2 = 6421 
~ length = 40 units = m 
~ linecode = 67

New line.959 phases = 3 bus1 = 1443 bus2 = 1442 
~ length = 40 units = m 
~ linecode = 63

New line.872 phases = 3 bus1 = 2464 bus2 = 2465 
~ length = 40 units = m 
~ linecode = 70

New line.153 phases = 3 bus1 = 4740 bus2 = 1342 
~ length = 40 units = m 
~ linecode = 63

New line.227 phases = 3 bus1 = 3266 bus2 = 2361 
~ length = 40 units = m 
~ linecode = 70

New line.245 phases = 3 bus1 = 2746 bus2 = 3266 
~ length = 40 units = m 
~ linecode = 70

New line.295 phases = 3 bus1 = 31 bus2 = 2442 
~ length = 40 units = m 
~ linecode = 63

New line.1453 phases = 3 bus1 = 694 bus2 = 3345 
~ length = 40 units = m 
~ linecode = 63

New line.956 phases = 3 bus1 = 2468 bus2 = 2467 
~ length = 40 units = m 
~ linecode = 56

New line.36 phases = 3 bus1 = 673 bus2 = 672 
~ length = 40 units = m 
~ linecode = 63

New line.831 phases = 3 bus1 = 2109 bus2 = 2108 
~ length = 40 units = m 
~ linecode = 68

New line.640 phases = 3 bus1 = 2356 bus2 = 2195 
~ length = 40 units = m 
~ linecode = 63

New line.670 phases = 3 bus1 = 433 bus2 = 3171 
~ length = 40 units = m 
~ linecode = 68

New line.1885 phases = 3 bus1 = 7479 bus2 = 2363 
~ length = 40 units = m 
~ linecode = 67

New line.759 phases = 3 bus1 = 1074 bus2 = 20 
~ length = 40 units = m 
~ linecode = 63

New line.786 phases = 3 bus1 = 2116 bus2 = 899 
~ length = 40 units = m 
~ linecode = 67

New line.847 phases = 3 bus1 = 339 bus2 = 340 
~ length = 40 units = m 
~ linecode = 63

New line.1175 phases = 3 bus1 = 1432 bus2 = 3468 
~ length = 40 units = m 
~ linecode = 70

New line.1238 phases = 3 bus1 = 1986 bus2 = 1988 
~ length = 40 units = m 
~ linecode = 63

New line.18 phases = 3 bus1 = 1825 bus2 = 3208 
~ length = 40 units = m 
~ linecode = 63

New line.219 phases = 3 bus1 = 338 bus2 = 339 
~ length = 40 units = m 
~ linecode = 63

New line.251 phases = 3 bus1 = 929 bus2 = 3144 
~ length = 40 units = m 
~ linecode = 67

New line.341 phases = 3 bus1 = 14 bus2 = 11 
~ length = 40 units = m 
~ linecode = 63

New line.486 phases = 3 bus1 = 1296 bus2 = 1295 
~ length = 40 units = m 
~ linecode = 56

New line.1610 phases = 3 bus1 = 6627 bus2 = 6628 
~ length = 40 units = m 
~ linecode = 56

New line.955 phases = 3 bus1 = 250 bus2 = 249 
~ length = 40 units = m 
~ linecode = 63

New line.300 phases = 3 bus1 = 530 bus2 = 3376 
~ length = 40 units = m 
~ linecode = 56

New line.178 phases = 3 bus1 = 783 bus2 = 782 
~ length = 40 units = m 
~ linecode = 63

New line.775 phases = 3 bus1 = 793 bus2 = 3347 
~ length = 40 units = m 
~ linecode = 67

New line.798 phases = 3 bus1 = 1256 bus2 = 3409 
~ length = 40 units = m 
~ linecode = 56

New line.1003 phases = 3 bus1 = 1593 bus2 = 1826 
~ length = 40 units = m 
~ linecode = 63

New line.643 phases = 3 bus1 = 1959 bus2 = 1960 
~ length = 40 units = m 
~ linecode = 56

New line.330 phases = 3 bus1 = 3243 bus2 = 2344 
~ length = 40 units = m 
~ linecode = 67

New line.975 phases = 3 bus1 = 2466 bus2 = 2758 
~ length = 40 units = m 
~ linecode = 70

New line.59 phases = 3 bus1 = 436 bus2 = 3293 
~ length = 40 units = m 
~ linecode = 68

New line.225 phases = 3 bus1 = 6886 bus2 = 1767 
~ length = 40 units = m 
~ linecode = 63

New line.588 phases = 3 bus1 = 2363 bus2 = 2364 
~ length = 40 units = m 
~ linecode = 67

New line.888 phases = 3 bus1 = 3317 bus2 = 683 
~ length = 40 units = m 
~ linecode = 67

New line.1260 phases = 3 bus1 = 1348 bus2 = 1421 
~ length = 40 units = m 
~ linecode = 63

New line.5 phases = 3 bus1 = 1144 bus2 = 1145 
~ length = 40 units = m 
~ linecode = 68

New line.1505 phases = 3 bus1 = 6470 bus2 = 2751 
~ length = 40 units = m 
~ linecode = 56

New line.1543 phases = 3 bus1 = 2357 bus2 = 6793 
~ length = 40 units = m 
~ linecode = 56

New line.1875 phases = 3 bus1 = 7474 bus2 = 553 
~ length = 40 units = m 
~ linecode = 56

New line.1620 phases = 3 bus1 = 919 bus2 = 6874 
~ length = 40 units = m 
~ linecode = 56

New line.1681 phases = 3 bus1 = 1373 bus2 = 7219 
~ length = 40 units = m 
~ linecode = 67

New line.1876 phases = 3 bus1 = 682 bus2 = 7474 
~ length = 40 units = m 
~ linecode = 56

New line.1877 phases = 3 bus1 = 386 bus2 = 682 
~ length = 40 units = m 
~ linecode = 56

New line.1878 phases = 3 bus1 = 1879 bus2 = 3443 
~ length = 40 units = m 
~ linecode = 63

New line.1879 phases = 3 bus1 = 2794 bus2 = 3443 
~ length = 40 units = m 
~ linecode = 56

New line.1880 phases = 3 bus1 = 1878 bus2 = 2794 
~ length = 40 units = m 
~ linecode = 56

New line.1881 phases = 3 bus1 = 2793 bus2 = 3443 
~ length = 40 units = m 
~ linecode = 56

New line.1856 phases = 3 bus1 = 7376 bus2 = 7377 
~ length = 40 units = m 
~ linecode = 56

New line.1857 phases = 3 bus1 = 7377 bus2 = 7378 
~ length = 40 units = m 
~ linecode = 56

New line.1858 phases = 3 bus1 = 7378 bus2 = 7379 
~ length = 40 units = m 
~ linecode = 56

New line.1859 phases = 3 bus1 = 7379 bus2 = 7380 
~ length = 40 units = m 
~ linecode = 56

New line.1860 phases = 3 bus1 = 7375 bus2 = 7398 
~ length = 40 units = m 
~ linecode = 56

New line.1861 phases = 3 bus1 = 7374 bus2 = 7375 
~ length = 40 units = m 
~ linecode = 56

New line.1874 phases = 3 bus1 = 553 bus2 = 552 
~ length = 40 units = m 
~ linecode = 56

New line.1845 phases = 3 bus1 = 7362 bus2 = 7397 
~ length = 40 units = m 
~ linecode = 56

New line.1841 phases = 3 bus1 = 7359 bus2 = 7394 
~ length = 40 units = m 
~ linecode = 56

New line.1842 phases = 3 bus1 = 7394 bus2 = 7360 
~ length = 40 units = m 
~ linecode = 56

New line.1843 phases = 3 bus1 = 7360 bus2 = 7397 
~ length = 40 units = m 
~ linecode = 56

New line.1844 phases = 3 bus1 = 7361 bus2 = 7397 
~ length = 40 units = m 
~ linecode = 56

New line.1846 phases = 3 bus1 = 7397 bus2 = 7363 
~ length = 40 units = m 
~ linecode = 56

New line.1847 phases = 3 bus1 = 7363 bus2 = 7364 
~ length = 40 units = m 
~ linecode = 56

New line.1848 phases = 3 bus1 = 7364 bus2 = 7365 
~ length = 40 units = m 
~ linecode = 56

New line.1849 phases = 3 bus1 = 7365 bus2 = 7366 
~ length = 40 units = m 
~ linecode = 56

New line.1852 phases = 3 bus1 = 7368 bus2 = 7369 
~ length = 40 units = m 
~ linecode = 56

New line.1851 phases = 3 bus1 = 7367 bus2 = 7368 
~ length = 40 units = m 
~ linecode = 56

New line.1853 phases = 3 bus1 = 7369 bus2 = 7398 
~ length = 40 units = m 
~ linecode = 56

New line.1854 phases = 3 bus1 = 7370 bus2 = 7398 
~ length = 40 units = m 
~ linecode = 56

New line.1855 phases = 3 bus1 = 7398 bus2 = 7376 
~ length = 40 units = m 
~ linecode = 56

New line.1551 phases = 3 bus1 = 6919 bus2 = 6922 
~ length = 40 units = m 
~ linecode = 56

New line.1646 phases = 3 bus1 = 787 bus2 = 3150 
~ length = 40 units = m 
~ linecode = 67

New line.1613 phases = 3 bus1 = 554 bus2 = 6628 
~ length = 40 units = m 
~ linecode = 56

New line.974 phases = 3 bus1 = 1610 bus2 = 1611 
~ length = 40 units = m 
~ linecode = 63

New line.980 phases = 3 bus1 = 3347 bus2 = 791 
~ length = 40 units = m 
~ linecode = 67

New line.1046 phases = 3 bus1 = 3208 bus2 = 144 
~ length = 40 units = m 
~ linecode = 70

New line.1076 phases = 3 bus1 = 3469 bus2 = 268 
~ length = 40 units = m 
~ linecode = 63

New line.1422 phases = 3 bus1 = 798 bus2 = 797 
~ length = 40 units = m 
~ linecode = 63

New line.1483 phases = 3 bus1 = 105 bus2 = 106 
~ length = 40 units = m 
~ linecode = 3

New line.1545 phases = 3 bus1 = 2359 bus2 = 2358 
~ length = 40 units = m 
~ linecode = 56

New line.740 phases = 3 bus1 = 3293 bus2 = 434 
~ length = 40 units = m 
~ linecode = 68

New line.747 phases = 3 bus1 = 2344 bus2 = 2345 
~ length = 40 units = m 
~ linecode = 67

New line.1782 phases = 3 bus1 = 7334 bus2 = 1734 
~ length = 40 units = m 
~ linecode = 63

New line.885 phases = 3 bus1 = 1851 bus2 = 3439 
~ length = 40 units = m 
~ linecode = 63

New line.891 phases = 3 bus1 = 3173 bus2 = 842 
~ length = 40 units = m 
~ linecode = 70

New line.937 phases = 3 bus1 = 1141 bus2 = 1142 
~ length = 40 units = m 
~ linecode = 68

New line.943 phases = 3 bus1 = 1199 bus2 = 4740 
~ length = 40 units = m 
~ linecode = 56

New line.554 phases = 3 bus1 = 3418 bus2 = 36 
~ length = 40 units = m 
~ linecode = 67

New line.562 phases = 3 bus1 = 796 bus2 = 794 
~ length = 40 units = m 
~ linecode = 67

New line.585 phases = 3 bus1 = 902 bus2 = 901 
~ length = 40 units = m 
~ linecode = 63

New line.592 phases = 3 bus1 = 2465 bus2 = 2466 
~ length = 40 units = m 
~ linecode = 70

New line.626 phases = 3 bus1 = 331 bus2 = 332 
~ length = 41 units = m 
~ linecode = 3

New line.645 phases = 3 bus1 = 3409 bus2 = 1352 
~ length = 40 units = m 
~ linecode = 63

New line.701 phases = 3 bus1 = 1315 bus2 = 1314 
~ length = 40 units = m 
~ linecode = 67

New line.347 phases = 3 bus1 = 173 bus2 = 174 
~ length = 40 units = m 
~ linecode = 3

New line.1755 phases = 3 bus1 = 7286 bus2 = 3112 
~ length = 40 units = m 
~ linecode = 67

New line.448 phases = 3 bus1 = 283 bus2 = 282 
~ length = 40 units = m 
~ linecode = 63

New line.459 phases = 3 bus1 = 234 bus2 = 235 
~ length = 40 units = m 
~ linecode = 70

New line.465 phases = 3 bus1 = 1961 bus2 = 828 
~ length = 40 units = m 
~ linecode = 70

New line.526 phases = 3 bus1 = 645 bus2 = 1675 
~ length = 40 units = m 
~ linecode = 63

New line.532 phases = 3 bus1 = 1111 bus2 = 3251 
~ length = 40 units = m 
~ linecode = 63

New line.166 phases = 3 bus1 = 198 bus2 = 194 
~ length = 40 units = m 
~ linecode = 63

New line.202 phases = 3 bus1 = 3019 bus2 = 3018 
~ length = 40 units = m 
~ linecode = 63

New line.228 phases = 3 bus1 = 2341 bus2 = 2342 
~ length = 40 units = m 
~ linecode = 63

New line.234 phases = 3 bus1 = 1590 bus2 = 3352 
~ length = 40 units = m 
~ linecode = 63

New line.250 phases = 3 bus1 = 1307 bus2 = 1306 
~ length = 40 units = m 
~ linecode = 67

New line.287 phases = 3 bus1 = 6854 bus2 = 1586 
~ length = 40 units = m 
~ linecode = 63

New line.19 phases = 3 bus1 = 1822 bus2 = 1823 
~ length = 40 units = m 
~ linecode = 70

New line.26 phases = 3 bus1 = 2112 bus2 = 2111 
~ length = 40 units = m 
~ linecode = 68

New line.49 phases = 3 bus1 = 1735 bus2 = 768 
~ length = 40 units = m 
~ linecode = 63

New line.78 phases = 3 bus1 = 647 bus2 = 645 
~ length = 40 units = m 
~ linecode = 63

New line.85 phases = 3 bus1 = 1592 bus2 = 1593 
~ length = 40 units = m 
~ linecode = 63

New line.107 phases = 3 bus1 = 1730 bus2 = 3378 
~ length = 40 units = m 
~ linecode = 63

New line.114 phases = 3 bus1 = 2443 bus2 = 31 
~ length = 40 units = m 
~ linecode = 63

New line.143 phases = 3 bus1 = 2237 bus2 = 988 
~ length = 40 units = m 
~ linecode = 70

New line.160 phases = 3 bus1 = 2924 bus2 = 2194 
~ length = 40 units = m 
~ linecode = 63

New line.1756 phases = 3 bus1 = 7287 bus2 = 1373 
~ length = 40 units = m 
~ linecode = 67

New line.1250 phases = 3 bus1 = 1455 bus2 = 1457 
~ length = 40 units = m 
~ linecode = 56

New line.1256 phases = 3 bus1 = 2091 bus2 = 2090 
~ length = 40 units = m 
~ linecode = 63

New line.1272 phases = 3 bus1 = 1660 bus2 = 1661 
~ length = 40 units = m 
~ linecode = 63

New line.1279 phases = 3 bus1 = 267 bus2 = 265 
~ length = 40 units = m 
~ linecode = 56

New line.1773 phases = 3 bus1 = 2495 bus2 = 7317 
~ length = 41 units = m 
~ linecode = 3

New line.1779 phases = 3 bus1 = 2926 bus2 = 2927 
~ length = 40 units = m 
~ linecode = 67

New line.1776 phases = 3 bus1 = 2348 bus2 = 2349 
~ length = 40 units = m 
~ linecode = 67

New line.1777 phases = 3 bus1 = 2349 bus2 = 2926 
~ length = 40 units = m 
~ linecode = 67

New line.1778 phases = 3 bus1 = 2927 bus2 = 2928 
~ length = 40 units = m 
~ linecode = 67

New line.1100 phases = 3 bus1 = 1976 bus2 = 6793 
~ length = 40 units = m 
~ linecode = 63

New line.1136 phases = 3 bus1 = 2792 bus2 = 1114 
~ length = 40 units = m 
~ linecode = 63

New line.1166 phases = 3 bus1 = 3477 bus2 = 117 
~ length = 40 units = m 
~ linecode = 63

New line.1189 phases = 3 bus1 = 1063 bus2 = 1062 
~ length = 40 units = m 
~ linecode = 67

New line.1716 phases = 3 bus1 = 2474 bus2 = 2468 
~ length = 40 units = m 
~ linecode = 56

New line.1717 phases = 3 bus1 = 2475 bus2 = 2474 
~ length = 40 units = m 
~ linecode = 56

New line.1718 phases = 3 bus1 = 7267 bus2 = 14 
~ length = 40 units = m 
~ linecode = 63

New line.1623 phases = 3 bus1 = 6862 bus2 = 6861 
~ length = 40 units = m 
~ linecode = 56

New line.1624 phases = 3 bus1 = 6863 bus2 = 6862 
~ length = 40 units = m 
~ linecode = 56

New line.1625 phases = 3 bus1 = 6864 bus2 = 6863 
~ length = 40 units = m 
~ linecode = 56

New line.1626 phases = 3 bus1 = 6851 bus2 = 6853 
~ length = 40 units = m 
~ linecode = 56

New line.1651 phases = 3 bus1 = 683 bus2 = 684 
~ length = 40 units = m 
~ linecode = 67

New line.1652 phases = 3 bus1 = 6931 bus2 = 2481 
~ length = 40 units = m 
~ linecode = 67

New line.1661 phases = 3 bus1 = 152 bus2 = 3249 
~ length = 40 units = m 
~ linecode = 70

New line.1658 phases = 3 bus1 = 151 bus2 = 3249 
~ length = 40 units = m 
~ linecode = 70

New line.1660 phases = 3 bus1 = 153 bus2 = 3249 
~ length = 40 units = m 
~ linecode = 70

New line.1666 phases = 3 bus1 = 6942 bus2 = 6941 
~ length = 40 units = m 
~ linecode = 56

New line.1667 phases = 3 bus1 = 6943 bus2 = 6942 
~ length = 40 units = m 
~ linecode = 56

New line.1668 phases = 3 bus1 = 6944 bus2 = 6943 
~ length = 40 units = m 
~ linecode = 56

New line.1611 phases = 3 bus1 = 6628 bus2 = 559 
~ length = 40 units = m 
~ linecode = 56

New line.1612 phases = 3 bus1 = 6614 bus2 = 6628 
~ length = 40 units = m 
~ linecode = 56

New line.1614 phases = 3 bus1 = 555 bus2 = 554 
~ length = 40 units = m 
~ linecode = 56

New line.1615 phases = 3 bus1 = 556 bus2 = 555 
~ length = 40 units = m 
~ linecode = 56

New line.1616 phases = 3 bus1 = 557 bus2 = 556 
~ length = 40 units = m 
~ linecode = 56

New line.1617 phases = 3 bus1 = 558 bus2 = 557 
~ length = 40 units = m 
~ linecode = 56

New line.1621 phases = 3 bus1 = 6855 bus2 = 6853 
~ length = 40 units = m 
~ linecode = 56

New line.1622 phases = 3 bus1 = 6861 bus2 = 6855 
~ length = 40 units = m 
~ linecode = 56

New line.1643 phases = 3 bus1 = 3150 bus2 = 1967 
~ length = 40 units = m 
~ linecode = 67

New line.1644 phases = 3 bus1 = 685 bus2 = 3150 
~ length = 40 units = m 
~ linecode = 67

New line.1645 phases = 3 bus1 = 684 bus2 = 685 
~ length = 40 units = m 
~ linecode = 67

New line.1647 phases = 3 bus1 = 784 bus2 = 3150 
~ length = 40 units = m 
~ linecode = 67

New line.1648 phases = 3 bus1 = 785 bus2 = 784 
~ length = 40 units = m 
~ linecode = 67

New line.1649 phases = 3 bus1 = 1981 bus2 = 785 
~ length = 40 units = m 
~ linecode = 67

New line.1552 phases = 3 bus1 = 6920 bus2 = 6919 
~ length = 40 units = m 
~ linecode = 56

New line.1553 phases = 3 bus1 = 6918 bus2 = 6922 
~ length = 40 units = m 
~ linecode = 56

New line.1554 phases = 3 bus1 = 6887 bus2 = 6886 
~ length = 40 units = m 
~ linecode = 63

New line.1555 phases = 3 bus1 = 6888 bus2 = 6887 
~ length = 40 units = m 
~ linecode = 63

New line.1556 phases = 3 bus1 = 6889 bus2 = 6888 
~ length = 40 units = m 
~ linecode = 63

New line.1557 phases = 3 bus1 = 6892 bus2 = 6889 
~ length = 40 units = m 
~ linecode = 63

New line.1558 phases = 3 bus1 = 1185 bus2 = 6892 
~ length = 40 units = m 
~ linecode = 63

New line.1560 phases = 3 bus1 = 6914 bus2 = 1669 
~ length = 40 units = m 
~ linecode = 63

New line.1542 phases = 3 bus1 = 1867 bus2 = 6793 
~ length = 40 units = m 
~ linecode = 56

New line.1544 phases = 3 bus1 = 2358 bus2 = 2357 
~ length = 40 units = m 
~ linecode = 56

New line.1546 phases = 3 bus1 = 6797 bus2 = 2359 
~ length = 40 units = m 
~ linecode = 56

New line.1547 phases = 3 bus1 = 6915 bus2 = 6797 
~ length = 40 units = m 
~ linecode = 56

New line.1548 phases = 3 bus1 = 6916 bus2 = 6915 
~ length = 40 units = m 
~ linecode = 56

New line.1549 phases = 3 bus1 = 6922 bus2 = 6916 
~ length = 40 units = m 
~ linecode = 56

New line.1550 phases = 3 bus1 = 6917 bus2 = 6922 
~ length = 40 units = m 
~ linecode = 56

New line.1507 phases = 3 bus1 = 485 bus2 = 6468 
~ length = 40 units = m 
~ linecode = 56

New line.1508 phases = 3 bus1 = 486 bus2 = 6468 
~ length = 40 units = m 
~ linecode = 56

New line.1509 phases = 3 bus1 = 2749 bus2 = 486 
~ length = 40 units = m 
~ linecode = 56

New line.1511 phases = 3 bus1 = 2751 bus2 = 2750 
~ length = 40 units = m 
~ linecode = 56

New line.1527 phases = 3 bus1 = 88 bus2 = 6853 
~ length = 40 units = m 
~ linecode = 63

New line.1528 phases = 3 bus1 = 6853 bus2 = 6854 
~ length = 40 units = m 
~ linecode = 63

New line.1475 phases = 3 bus1 = 770 bus2 = 3291 
~ length = 40 units = m 
~ linecode = 63

New line.1479 phases = 3 bus1 = 1310 bus2 = 1309 
~ length = 40 units = m 
~ linecode = 67

New line.1480 phases = 3 bus1 = 6402 bus2 = 150 
~ length = 40 units = m 
~ linecode = 67

New line.1484 phases = 3 bus1 = 6421 bus2 = 2487 
~ length = 40 units = m 
~ linecode = 67

New line.1488 phases = 3 bus1 = 1313 bus2 = 1310 
~ length = 40 units = m 
~ linecode = 67

New line.1492 phases = 3 bus1 = 6426 bus2 = 6425 
~ length = 40 units = m 
~ linecode = 56

New line.1493 phases = 3 bus1 = 6441 bus2 = 6438 
~ length = 40 units = m 
~ linecode = 56

New line.1494 phases = 3 bus1 = 1314 bus2 = 1313 
~ length = 40 units = m 
~ linecode = 67

New line.1495 phases = 3 bus1 = 6437 bus2 = 6426 
~ length = 40 units = m 
~ linecode = 56

New line.1501 phases = 3 bus1 = 1864 bus2 = 1863 
~ length = 40 units = m 
~ linecode = 63

New line.1448 phases = 3 bus1 = 102 bus2 = 103 
~ length = 40 units = m 
~ linecode = 3

New line.1451 phases = 3 bus1 = 1418 bus2 = 1660 
~ length = 40 units = m 
~ linecode = 63

New line.1454 phases = 3 bus1 = 825 bus2 = 3468 
~ length = 40 units = m 
~ linecode = 67

New line.1455 phases = 3 bus1 = 2346 bus2 = 2348 
~ length = 40 units = m 
~ linecode = 67

New line.1456 phases = 3 bus1 = 2353 bus2 = 6805 
~ length = 40 units = m 
~ linecode = 63

New line.1457 phases = 3 bus1 = 1209 bus2 = 6805 
~ length = 40 units = m 
~ linecode = 56

New line.1458 phases = 3 bus1 = 2354 bus2 = 6805 
~ length = 40 units = m 
~ linecode = 56

New line.1460 phases = 3 bus1 = 2355 bus2 = 2354 
~ length = 40 units = m 
~ linecode = 56

New line.1461 phases = 3 bus1 = 6806 bus2 = 731 
~ length = 40 units = m 
~ linecode = 63

New line.1464 phases = 3 bus1 = 6804 bus2 = 2355 
~ length = 40 units = m 
~ linecode = 56

New line.1472 phases = 3 bus1 = 1621 bus2 = 1714 
~ length = 40 units = m 
~ linecode = 63

New line.1473 phases = 3 bus1 = 327 bus2 = 328 
~ length = 41 units = m 
~ linecode = 3

New line.1431 phases = 3 bus1 = 7317 bus2 = 2496 
~ length = 41 units = m 
~ linecode = 3

New line.1445 phases = 3 bus1 = 6874 bus2 = 1722 
~ length = 40 units = m 
~ linecode = 56

New line.1446 phases = 3 bus1 = 1729 bus2 = 3378 
~ length = 40 units = m 
~ linecode = 56

New line.1403 phases = 3 bus1 = 334 bus2 = 335 
~ length = 41 units = m 
~ linecode = 3

New line.1642 phases = 3 bus1 = 1967 bus2 = 2363 
~ length = 40 units = m 
~ linecode = 67

New line.1413 phases = 3 bus1 = 1441 bus2 = 4740 
~ length = 40 units = m 
~ linecode = 56

New line.1417 phases = 3 bus1 = 1035 bus2 = 1036 
~ length = 40 units = m 
~ linecode = 63

New line.1419 phases = 3 bus1 = 142 bus2 = 3293 
~ length = 40 units = m 
~ linecode = 56

New line.1356 phases = 3 bus1 = 319 bus2 = 320 
~ length = 41 units = m 
~ linecode = 3

New line.1358 phases = 3 bus1 = 1718 bus2 = 3291 
~ length = 40 units = m 
~ linecode = 63

New line.1359 phases = 3 bus1 = 1721 bus2 = 1733 
~ length = 40 units = m 
~ linecode = 56

New line.1365 phases = 3 bus1 = 187 bus2 = 188 
~ length = 41 units = m 
~ linecode = 3

New line.1366 phases = 3 bus1 = 1731 bus2 = 1732 
~ length = 40 units = m 
~ linecode = 63

New line.1369 phases = 3 bus1 = 215 bus2 = 3469 
~ length = 40 units = m 
~ linecode = 56

New line.1374 phases = 3 bus1 = 321 bus2 = 322 
~ length = 41 units = m 
~ linecode = 3

New line.1318 phases = 3 bus1 = 270 bus2 = 3171 
~ length = 40 units = m 
~ linecode = 63

New line.1319 phases = 3 bus1 = 1382 bus2 = 1958 
~ length = 40 units = m 
~ linecode = 63

New line.1275 phases = 3 bus1 = 827 bus2 = 84 
~ length = 40 units = m 
~ linecode = 70

New line.1276 phases = 3 bus1 = 1304 bus2 = 1303 
~ length = 40 units = m 
~ linecode = 67

New line.1280 phases = 3 bus1 = 855 bus2 = 2923 
~ length = 40 units = m 
~ linecode = 63

New line.1282 phases = 3 bus1 = 190 bus2 = 318 
~ length = 41 units = m 
~ linecode = 3

New line.1288 phases = 3 bus1 = 6438 bus2 = 6437 
~ length = 40 units = m 
~ linecode = 56

New line.1292 phases = 3 bus1 = 2080 bus2 = 1315 
~ length = 40 units = m 
~ linecode = 67

New line.1251 phases = 3 bus1 = 3376 bus2 = 1297 
~ length = 40 units = m 
~ linecode = 56

New line.1252 phases = 3 bus1 = 2068 bus2 = 3143 
~ length = 40 units = m 
~ linecode = 56

New line.1254 phases = 3 bus1 = 1826 bus2 = 283 
~ length = 40 units = m 
~ linecode = 63

New line.1255 phases = 3 bus1 = 2084 bus2 = 2083 
~ length = 40 units = m 
~ linecode = 63

New line.1257 phases = 3 bus1 = 7678 bus2 = 2488 
~ length = 40 units = m 
~ linecode = 63

New line.1259 phases = 3 bus1 = 183 bus2 = 184 
~ length = 41 units = m 
~ linecode = 3

New line.1261 phases = 3 bus1 = 252 bus2 = 251 
~ length = 40 units = m 
~ linecode = 63

New line.1264 phases = 3 bus1 = 1873 bus2 = 2618 
~ length = 40 units = m 
~ linecode = 63

New line.1266 phases = 3 bus1 = 1661 bus2 = 3169 
~ length = 40 units = m 
~ linecode = 67

New line.1268 phases = 3 bus1 = 344 bus2 = 262 
~ length = 40 units = m 
~ linecode = 67

New line.1270 phases = 3 bus1 = 472 bus2 = 100 
~ length = 40 units = m 
~ linecode = 3

New line.1273 phases = 3 bus1 = 1442 bus2 = 1441 
~ length = 40 units = m 
~ linecode = 56

New line.1274 phases = 3 bus1 = 2923 bus2 = 2924 
~ length = 40 units = m 
~ linecode = 63

New line.1220 phases = 3 bus1 = 100 bus2 = 101 
~ length = 40 units = m 
~ linecode = 3

New line.1228 phases = 3 bus1 = 794 bus2 = 793 
~ length = 40 units = m 
~ linecode = 67

New line.1233 phases = 3 bus1 = 3437 bus2 = 796 
~ length = 40 units = m 
~ linecode = 67

New line.1237 phases = 3 bus1 = 109 bus2 = 1464 
~ length = 40 units = m 
~ linecode = 70

New line.1241 phases = 3 bus1 = 1117 bus2 = 1113 
~ length = 40 units = m 
~ linecode = 70

New line.1246 phases = 3 bus1 = 1343 bus2 = 3300 
~ length = 40 units = m 
~ linecode = 56

New line.1200 phases = 3 bus1 = 1349 bus2 = 3409 
~ length = 40 units = m 
~ linecode = 56

New line.1201 phases = 3 bus1 = 1351 bus2 = 1350 
~ length = 40 units = m 
~ linecode = 56

New line.1216 phases = 3 bus1 = 1295 bus2 = 3321 
~ length = 40 units = m 
~ linecode = 56

New line.1165 phases = 3 bus1 = 1450 bus2 = 801 
~ length = 40 units = m 
~ linecode = 63

New line.1167 phases = 3 bus1 = 2779 bus2 = 2778 
~ length = 40 units = m 
~ linecode = 70

New line.1169 phases = 3 bus1 = 567 bus2 = 3345 
~ length = 40 units = m 
~ linecode = 63

New line.1171 phases = 3 bus1 = 180 bus2 = 181 
~ length = 40 units = m 
~ linecode = 3

New line.1172 phases = 3 bus1 = 1113 bus2 = 1112 
~ length = 40 units = m 
~ linecode = 70

New line.1174 phases = 3 bus1 = 1058 bus2 = 1057 
~ length = 40 units = m 
~ linecode = 67

New line.1178 phases = 3 bus1 = 1634 bus2 = 3358 
~ length = 40 units = m 
~ linecode = 68

New line.1187 phases = 3 bus1 = 1056 bus2 = 1055 
~ length = 40 units = m 
~ linecode = 67

New line.1133 phases = 3 bus1 = 2083 bus2 = 2082 
~ length = 40 units = m 
~ linecode = 63

New line.1145 phases = 3 bus1 = 318 bus2 = 319 
~ length = 41 units = m 
~ linecode = 3

New line.1157 phases = 3 bus1 = 2081 bus2 = 706 
~ length = 40 units = m 
~ linecode = 63

New line.1162 phases = 3 bus1 = 2480 bus2 = 2080 
~ length = 40 units = m 
~ linecode = 67

New line.1163 phases = 3 bus1 = 1874 bus2 = 3407 
~ length = 40 units = m 
~ linecode = 63

New line.1164 phases = 3 bus1 = 1421 bus2 = 1420 
~ length = 40 units = m 
~ linecode = 63

New line.1113 phases = 3 bus1 = 1060 bus2 = 1059 
~ length = 40 units = m 
~ linecode = 67

New line.1114 phases = 3 bus1 = 823 bus2 = 824 
~ length = 40 units = m 
~ linecode = 63

New line.1115 phases = 3 bus1 = 2362 bus2 = 2745 
~ length = 40 units = m 
~ linecode = 63

New line.1117 phases = 3 bus1 = 1863 bus2 = 1862 
~ length = 40 units = m 
~ linecode = 63

New line.1118 phases = 3 bus1 = 671 bus2 = 3383 
~ length = 40 units = m 
~ linecode = 63

New line.1119 phases = 3 bus1 = 649 bus2 = 648 
~ length = 40 units = m 
~ linecode = 63

New line.1121 phases = 3 bus1 = 3249 bus2 = 233 
~ length = 40 units = m 
~ linecode = 70

New line.1125 phases = 3 bus1 = 101 bus2 = 102 
~ length = 40 units = m 
~ linecode = 3

New line.1084 phases = 3 bus1 = 3300 bus2 = 1105 
~ length = 40 units = m 
~ linecode = 56

New line.1085 phases = 3 bus1 = 1103 bus2 = 1104 
~ length = 40 units = m 
~ linecode = 56

New line.1092 phases = 3 bus1 = 1525 bus2 = 3358 
~ length = 40 units = m 
~ linecode = 68

New line.1094 phases = 3 bus1 = 626 bus2 = 625 
~ length = 40 units = m 
~ linecode = 63

New line.1095 phases = 3 bus1 = 3030 bus2 = 3031 
~ length = 40 units = m 
~ linecode = 63

New line.1096 phases = 3 bus1 = 255 bus2 = 253 
~ length = 40 units = m 
~ linecode = 63

New line.1097 phases = 3 bus1 = 1866 bus2 = 1865 
~ length = 40 units = m 
~ linecode = 63

New line.1098 phases = 3 bus1 = 6793 bus2 = 1866 
~ length = 40 units = m 
~ linecode = 63

New line.1082 phases = 3 bus1 = 3101 bus2 = 3269 
~ length = 40 units = m 
~ linecode = 56

New line.1060 phases = 3 bus1 = 1308 bus2 = 1307 
~ length = 40 units = m 
~ linecode = 67

New line.1071 phases = 3 bus1 = 1255 bus2 = 3409 
~ length = 40 units = m 
~ linecode = 63

New line.1073 phases = 3 bus1 = 214 bus2 = 3469 
~ length = 40 units = m 
~ linecode = 63

New line.1079 phases = 3 bus1 = 186 bus2 = 187 
~ length = 41 units = m 
~ linecode = 3

New line.1037 phases = 3 bus1 = 1021 bus2 = 1155 
~ length = 40 units = m 
~ linecode = 56

New line.1040 phases = 3 bus1 = 1292 bus2 = 1294 
~ length = 40 units = m 
~ linecode = 56

New line.1042 phases = 3 bus1 = 3321 bus2 = 1292 
~ length = 40 units = m 
~ linecode = 56

New line.1047 phases = 3 bus1 = 1353 bus2 = 21 
~ length = 40 units = m 
~ linecode = 63

New line.1050 phases = 3 bus1 = 1805 bus2 = 1807 
~ length = 40 units = m 
~ linecode = 63

New line.1051 phases = 3 bus1 = 705 bus2 = 3345 
~ length = 40 units = m 
~ linecode = 63

New line.1059 phases = 3 bus1 = 1303 bus2 = 941 
~ length = 40 units = m 
~ linecode = 67

New line.1005 phases = 3 bus1 = 333 bus2 = 334 
~ length = 41 units = m 
~ linecode = 3

New line.1026 phases = 3 bus1 = 1962 bus2 = 3173 
~ length = 40 units = m 
~ linecode = 70

New line.1030 phases = 3 bus1 = 1036 bus2 = 1382 
~ length = 40 units = m 
~ linecode = 63

New line.1031 phases = 3 bus1 = 1717 bus2 = 1718 
~ length = 40 units = m 
~ linecode = 63

New line.1033 phases = 3 bus1 = 837 bus2 = 836 
~ length = 40 units = m 
~ linecode = 63

New line.981 phases = 3 bus1 = 438 bus2 = 441 
~ length = 40 units = m 
~ linecode = 63

New line.992 phases = 3 bus1 = 143 bus2 = 383 
~ length = 40 units = m 
~ linecode = 68

New line.993 phases = 3 bus1 = 539 bus2 = 453 
~ length = 40 units = m 
~ linecode = 63

New line.996 phases = 3 bus1 = 2191 bus2 = 2190 
~ length = 40 units = m 
~ linecode = 70

New line.1000 phases = 3 bus1 = 320 bus2 = 321 
~ length = 41 units = m 
~ linecode = 3

New line.1001 phases = 3 bus1 = 899 bus2 = 900 
~ length = 40 units = m 
~ linecode = 68

New line.1002 phases = 3 bus1 = 2922 bus2 = 3269 
~ length = 40 units = m 
~ linecode = 56

New line.1004 phases = 3 bus1 = 172 bus2 = 173 
~ length = 40 units = m 
~ linecode = 3

New line.957 phases = 3 bus1 = 282 bus2 = 281 
~ length = 40 units = m 
~ linecode = 63

New line.960 phases = 3 bus1 = 828 bus2 = 3144 
~ length = 40 units = m 
~ linecode = 70

New line.963 phases = 3 bus1 = 1062 bus2 = 3317 
~ length = 40 units = m 
~ linecode = 67

New line.964 phases = 3 bus1 = 1238 bus2 = 1239 
~ length = 40 units = m 
~ linecode = 63

New line.965 phases = 3 bus1 = 3345 bus2 = 566 
~ length = 40 units = m 
~ linecode = 63

New line.966 phases = 3 bus1 = 2932 bus2 = 3251 
~ length = 40 units = m 
~ linecode = 63

New line.968 phases = 3 bus1 = 322 bus2 = 323 
~ length = 41 units = m 
~ linecode = 3

New line.972 phases = 3 bus1 = 1377 bus2 = 1060 
~ length = 40 units = m 
~ linecode = 67

New line.973 phases = 3 bus1 = 1051 bus2 = 3437 
~ length = 40 units = m 
~ linecode = 63

New line.976 phases = 3 bus1 = 108 bus2 = 168 
~ length = 40 units = m 
~ linecode = 3

New line.977 phases = 3 bus1 = 2367 bus2 = 2368 
~ length = 40 units = m 
~ linecode = 70

New line.978 phases = 3 bus1 = 3112 bus2 = 3189 
~ length = 40 units = m 
~ linecode = 67

New line.979 phases = 3 bus1 = 790 bus2 = 3347 
~ length = 40 units = m 
~ linecode = 63

New line.933 phases = 3 bus1 = 3169 bus2 = 72 
~ length = 40 units = m 
~ linecode = 70

New line.938 phases = 3 bus1 = 1146 bus2 = 1515 
~ length = 40 units = m 
~ linecode = 68

New line.940 phases = 3 bus1 = 1422 bus2 = 1167 
~ length = 40 units = m 
~ linecode = 63

New line.941 phases = 3 bus1 = 1165 bus2 = 1423 
~ length = 40 units = m 
~ linecode = 63

New line.944 phases = 3 bus1 = 1106 bus2 = 1199 
~ length = 40 units = m 
~ linecode = 56

New line.945 phases = 3 bus1 = 1104 bus2 = 3300 
~ length = 40 units = m 
~ linecode = 56

New line.947 phases = 3 bus1 = 8226 bus2 = 472 
~ length = 40 units = m 
~ linecode = 3

New line.951 phases = 3 bus1 = 1861 bus2 = 3266 
~ length = 40 units = m 
~ linecode = 70

New line.953 phases = 3 bus1 = 2345 bus2 = 2346 
~ length = 40 units = m 
~ linecode = 67

New line.925 phases = 3 bus1 = 330 bus2 = 331 
~ length = 41 units = m 
~ linecode = 3

New line.927 phases = 3 bus1 = 2108 bus2 = 1377 
~ length = 40 units = m 
~ linecode = 68

New line.887 phases = 3 bus1 = 222 bus2 = 3439 
~ length = 40 units = m 
~ linecode = 63

New line.889 phases = 3 bus1 = 121 bus2 = 1824 
~ length = 40 units = m 
~ linecode = 63

New line.890 phases = 3 bus1 = 146 bus2 = 3460 
~ length = 40 units = m 
~ linecode = 70

New line.892 phases = 3 bus1 = 625 bus2 = 3173 
~ length = 40 units = m 
~ linecode = 56

New line.893 phases = 3 bus1 = 2766 bus2 = 2767 
~ length = 40 units = m 
~ linecode = 70

New line.894 phases = 3 bus1 = 1673 bus2 = 3317 
~ length = 40 units = m 
~ linecode = 67

New line.897 phases = 3 bus1 = 3352 bus2 = 1593 
~ length = 40 units = m 
~ linecode = 63

New line.898 phases = 3 bus1 = 185 bus2 = 186 
~ length = 41 units = m 
~ linecode = 3

New line.900 phases = 3 bus1 = 2467 bus2 = 2068 
~ length = 40 units = m 
~ linecode = 56

New line.905 phases = 3 bus1 = 2496 bus2 = 2497 
~ length = 41 units = m 
~ linecode = 3

New line.906 phases = 3 bus1 = 335 bus2 = 2495 
~ length = 41 units = m 
~ linecode = 3

New line.864 phases = 3 bus1 = 6615 bus2 = 373 
~ length = 40 units = m 
~ linecode = 63

New line.866 phases = 3 bus1 = 2442 bus2 = 2441 
~ length = 40 units = m 
~ linecode = 63

New line.867 phases = 3 bus1 = 340 bus2 = 414 
~ length = 40 units = m 
~ linecode = 63

New line.868 phases = 3 bus1 = 674 bus2 = 338 
~ length = 40 units = m 
~ linecode = 63

New line.870 phases = 3 bus1 = 3439 bus2 = 2366 
~ length = 40 units = m 
~ linecode = 67

New line.871 phases = 3 bus1 = 2759 bus2 = 2760 
~ length = 40 units = m 
~ linecode = 70

New line.874 phases = 3 bus1 = 415 bus2 = 416 
~ length = 40 units = m 
~ linecode = 63

New line.876 phases = 3 bus1 = 2928 bus2 = 2929 
~ length = 40 units = m 
~ linecode = 67

New line.879 phases = 3 bus1 = 2194 bus2 = 2192 
~ length = 40 units = m 
~ linecode = 70

New line.880 phases = 3 bus1 = 3032 bus2 = 2353 
~ length = 40 units = m 
~ linecode = 63

New line.881 phases = 3 bus1 = 2003 bus2 = 3113 
~ length = 40 units = m 
~ linecode = 67

New line.839 phases = 3 bus1 = 3468 bus2 = 1431 
~ length = 40 units = m 
~ linecode = 70

New line.840 phases = 3 bus1 = 184 bus2 = 185 
~ length = 41 units = m 
~ linecode = 3

New line.841 phases = 3 bus1 = 2767 bus2 = 3266 
~ length = 40 units = m 
~ linecode = 70

New line.843 phases = 3 bus1 = 2362 bus2 = 147 
~ length = 40 units = m 
~ linecode = 63

New line.844 phases = 3 bus1 = 1616 bus2 = 1615 
~ length = 40 units = m 
~ linecode = 63

New line.845 phases = 3 bus1 = 2758 bus2 = 2759 
~ length = 40 units = m 
~ linecode = 70

New line.848 phases = 3 bus1 = 2481 bus2 = 2480 
~ length = 40 units = m 
~ linecode = 67

New line.849 phases = 3 bus1 = 672 bus2 = 3383 
~ length = 40 units = m 
~ linecode = 63

New line.855 phases = 3 bus1 = 1424 bus2 = 1429 
~ length = 40 units = m 
~ linecode = 67

New line.856 phases = 3 bus1 = 372 bus2 = 369 
~ length = 40 units = m 
~ linecode = 63

New line.857 phases = 3 bus1 = 2107 bus2 = 1377 
~ length = 40 units = m 
~ linecode = 68

New line.858 phases = 3 bus1 = 1464 bus2 = 1465 
~ length = 40 units = m 
~ linecode = 70

New line.859 phases = 3 bus1 = 373 bus2 = 372 
~ length = 40 units = m 
~ linecode = 63

New line.820 phases = 3 bus1 = 3111 bus2 = 3110 
~ length = 40 units = m 
~ linecode = 70

New line.822 phases = 3 bus1 = 103 bus2 = 104 
~ length = 40 units = m 
~ linecode = 3

New line.827 phases = 3 bus1 = 2236 bus2 = 2237 
~ length = 40 units = m 
~ linecode = 70

New line.829 phases = 3 bus1 = 3104 bus2 = 858 
~ length = 40 units = m 
~ linecode = 70

New line.793 phases = 3 bus1 = 3386 bus2 = 1141 
~ length = 40 units = m 
~ linecode = 68

New line.794 phases = 3 bus1 = 39 bus2 = 1631 
~ length = 40 units = m 
~ linecode = 63

New line.796 phases = 3 bus1 = 857 bus2 = 3111 
~ length = 40 units = m 
~ linecode = 70

New line.797 phases = 3 bus1 = 26 bus2 = 1351 
~ length = 40 units = m 
~ linecode = 56

New line.805 phases = 3 bus1 = 2190 bus2 = 2189 
~ length = 40 units = m 
~ linecode = 70

New line.806 phases = 3 bus1 = 1517 bus2 = 1520 
~ length = 40 units = m 
~ linecode = 68

New line.807 phases = 3 bus1 = 858 bus2 = 3407 
~ length = 40 units = m 
~ linecode = 70

New line.810 phases = 3 bus1 = 1278 bus2 = 1277 
~ length = 40 units = m 
~ linecode = 63

New line.767 phases = 3 bus1 = 1291 bus2 = 3321 
~ length = 40 units = m 
~ linecode = 56

New line.772 phases = 3 bus1 = 545 bus2 = 544 
~ length = 40 units = m 
~ linecode = 63

New line.773 phases = 3 bus1 = 416 bus2 = 437 
~ length = 40 units = m 
~ linecode = 63

New line.776 phases = 3 bus1 = 1612 bus2 = 1610 
~ length = 40 units = m 
~ linecode = 63

New line.777 phases = 3 bus1 = 236 bus2 = 237 
~ length = 40 units = m 
~ linecode = 70

New line.778 phases = 3 bus1 = 104 bus2 = 105 
~ length = 40 units = m 
~ linecode = 3

New line.779 phases = 3 bus1 = 789 bus2 = 788 
~ length = 40 units = m 
~ linecode = 67

New line.780 phases = 3 bus1 = 1850 bus2 = 3382 
~ length = 40 units = m 
~ linecode = 56

New line.787 phases = 3 bus1 = 1368 bus2 = 1273 
~ length = 40 units = m 
~ linecode = 63

New line.742 phases = 3 bus1 = 2214 bus2 = 2215 
~ length = 40 units = m 
~ linecode = 63

New line.743 phases = 3 bus1 = 1470 bus2 = 1103 
~ length = 40 units = m 
~ linecode = 56

New line.744 phases = 3 bus1 = 1809 bus2 = 148 
~ length = 40 units = m 
~ linecode = 63

New line.745 phases = 3 bus1 = 11 bus2 = 3243 
~ length = 40 units = m 
~ linecode = 63

New line.746 phases = 3 bus1 = 2768 bus2 = 3149 
~ length = 40 units = m 
~ linecode = 63

New line.750 phases = 3 bus1 = 2113 bus2 = 2112 
~ length = 40 units = m 
~ linecode = 68

New line.751 phases = 3 bus1 = 194 bus2 = 3352 
~ length = 40 units = m 
~ linecode = 63

New line.752 phases = 3 bus1 = 268 bus2 = 269 
~ length = 40 units = m 
~ linecode = 63

New line.753 phases = 3 bus1 = 15 bus2 = 3243 
~ length = 40 units = m 
~ linecode = 63

New line.1715 phases = 3 bus1 = 3378 bus2 = 1731 
~ length = 40 units = m 
~ linecode = 63

New line.756 phases = 3 bus1 = 248 bus2 = 198 
~ length = 40 units = m 
~ linecode = 63

New line.760 phases = 3 bus1 = 2748 bus2 = 2747 
~ length = 40 units = m 
~ linecode = 63

New line.761 phases = 3 bus1 = 1053 bus2 = 1449 
...